/*--------------------------------*- C++ -*----------------------------------*\
| =========                 |                                                 |
| \\      /  F ield         | OpenFOAM: The Open Source CFD Toolbox           |
|  \\    /   O peration     | Version:  2.0.0                                 |
|   \\  /    A nd           | Web:      www.OpenFOAM.com                      |
|    \\/     M anipulation  |                                                 |
\*---------------------------------------------------------------------------*/
FoamFile
{
    version     2.0;
    format      ascii;
    class       dictionary;
    object      fvSolution;
}
// * * * * * * * * * * * * * * * * * * * * * * * * * * * * * * * * * * * * * //

   solvers
    {
        "p_rgh.*"
        {
            solver           GAMG;
            tolerance        1e-7;
            relTol           0.01;
            smoother         DIC;
            maxIter          10;
        }

         "(U|h|e|k|epsilon).*"
        {
            solver           PBiCGStab;
            preconditioner   none;
            tolerance        1e-7;
            relTol           0.1;
        }
    
	
	
	
	    T
    {
/*        solver           PCG;
        preconditioner   DIC;
        tolerance        1e-06;
        relTol           0.1;
*/
       solver           GAMG;
        tolerance        1e-9;
        relTol           0.001;

        smoother         GaussSeidel;

        cacheAgglomeration true;
        nCellsInCoarsestLevel 24;
        agglomerator     faceAreaPair;
        mergeLevels      2;

        maxIter          1000;

    }

    TFinal
    {
        $T;
        tolerance        1e-09;
        relTol           0;
    }
}

PIMPLE
{
    nNonOrthogonalCorrectors 1;

	residualControl
	{
		T	1e-2;
		TFinal	1e-2;
	}
}

relaxationFactors
{
	T	0.75;
}
	

   

// ************************************************************************* //

