
      /*--------------------------------*- C++ -*----------------------------------*\
      |       o          |                                                          |
      |    o     o       | HELYX-OS                                                  |
      |   o   O   o      | Version: v2.2.0                                           |
      |    o     o       | Web:     http://www.engys.com                            |
      |       o          |                                                          |
      \*---------------------------------------------------------------------------*/
      FoamFile
      {
      version 2.0;
      format ascii;
      class dictionary;
      location system;
      object blockMeshDict;
      }
      convertToMeters 1;
      backgroundMesh
      {
      xMin -1.11022302462516E-16;
      xMax 0.500000000000003;
      yMin -2.66453525910038E-15;
      yMax 2.68;
      zMin 0;
      zMax 2.81;
      xCells 1;
      yCells 547;
      zCells 547;
      }
      vertices
      (
      ($:backgroundMesh.xMin $:backgroundMesh.yMin $:backgroundMesh.zMin)
      ($:backgroundMesh.xMax $:backgroundMesh.yMin $:backgroundMesh.zMin)
      ($:backgroundMesh.xMax $:backgroundMesh.yMax $:backgroundMesh.zMin)
      ($:backgroundMesh.xMin $:backgroundMesh.yMax $:backgroundMesh.zMin)
      ($:backgroundMesh.xMin $:backgroundMesh.yMin $:backgroundMesh.zMax)
      ($:backgroundMesh.xMax $:backgroundMesh.yMin $:backgroundMesh.zMax)
      ($:backgroundMesh.xMax $:backgroundMesh.yMax $:backgroundMesh.zMax)
      ($:backgroundMesh.xMin $:backgroundMesh.yMax $:backgroundMesh.zMax)
      );
      blocks
      (
      hex (0 1 2 3 4 5 6 7)
      (
      $:backgroundMesh.xCells
      $:backgroundMesh.yCells
      $:backgroundMesh.zCells
      )
      simpleGrading (1 1 1)
      );
      edges
      (
      );
      boundary
      (
      left
      {
      type patch;
      faces
      (
      (0 1 4 5)
      );
      }
      right
      {
      type patch;
      faces
      (
      (2 3 6 7)
      );
      }
      bottom
      {
      type patch;
      faces
      (
      (0 1 2 3)
      );
      }
      frontAndBack
      {
      type empty;
      faces
      (
      (1 2 5 6)
      (0 3 4 7)
      );
      }
      top
      {
      type patch;
      faces
      (
      (4 5 6 7)
      );
      }


      );
      
