

        /*--------------------------------*- C++ -*----------------------------------*\
        | =========                 |                                                 |
        | \\      /  F ield         | OpenFOAM: The Open Source CFD Toolbox           |
        |  \\    /   O peration     | Version:  2.0.0                                 |
        |   \\  /    A nd           | Web:      www.OpenFOAM.com                      |
        |    \\/     M anipulation  |                                                 |
        \*---------------------------------------------------------------------------*/
        FoamFile
        {
        version     2.0;
        format      ascii;
        class       dictionary;
        location    "system";
        object controlDict;
        }
        // * * * * * * * * * * * * * * * * * * * * * * * * * * * * * * * * * * * * * //

        application chtMultiRegionFoam;

        startFrom latestTime;

        startTime       0;

        stopAt endTime;
        //stopAt          writeNow;

        endTime         140;

        deltaT          1;

        writeControl adjustableRunTime;

        writeInterval   20;

        purgeWrite      0;

        writeFormat binary;
        //writeFormat     ascii;

        writePrecision  8;

        writeCompression off;
        //writeCompression on;

        timeFormat general;

        timePrecision   6;

        runTimeModifiable no;

        //maxCo           0.3;

        // Maximum diffusion number
        //maxDi           2.0;

        adjustTimeStep no;

        functions
        {
#includeFunc residuals_zone_13
#includeFunc residuals_zone_10
#includeFunc residuals_zone_9
#includeFunc residuals_zone_0
#includeFunc residuals_zone_1
#includeFunc residuals_zone_2
#includeFunc residuals_zone_3
#includeFunc residuals_zone_4
#includeFunc residuals_zone_5
#includeFunc residuals_zone_6
#includeFunc residuals_zone_7
#includeFunc residuals_zone_8
};




        
